Test_Network/condensed/network_10/Generators.txt
New Generator.GEN11 Bus1=1119.1 kV=0.213 kW=0 PF=1
New Generator.GEN12 Bus1=1120.2 kV=0.213 kW=0 PF=1
New Generator.GEN13 Bus1=1121.3 kV=0.213 kW=0 PF=1
New Generator.GEN14 Bus1=1122.1 kV=0.213 kW=0 PF=1
New Generator.GEN15 Bus1=1123.2 kV=0.213 kW=0 PF=1
New Generator.GEN16 Bus1=1124.3 kV=0.213 kW=0 PF=1
New Generator.GEN17 Bus1=1125.1 kV=0.213 kW=0 PF=1
New Generator.GEN18 Bus1=1126.2 kV=0.213 kW=0 PF=1
New Generator.GEN19 Bus1=1127.3 kV=0.213 kW=0 PF=1
New Generator.GEN110 Bus1=1128.1 kV=0.213 kW=0 PF=1
New Generator.GEN111 Bus1=1129.2 kV=0.213 kW=0 PF=1
New Generator.GEN112 Bus1=1130.3 kV=0.213 kW=0 PF=1
New Generator.GEN113 Bus1=1132.2 kV=0.213 kW=0 PF=1
New Generator.GEN114 Bus1=1241.1 kV=0.213 kW=0 PF=1
New Generator.GEN115 Bus1=1242.2 kV=0.213 kW=0 PF=1
New Generator.GEN116 Bus1=1243.3 kV=0.213 kW=0 PF=1
New Generator.GEN117 Bus1=1244.1 kV=0.213 kW=0 PF=1
New Generator.GEN118 Bus1=1245.2 kV=0.213 kW=0 PF=1
New Generator.GEN119 Bus1=1246.3 kV=0.213 kW=0 PF=1
New Generator.GEN120 Bus1=1247.1 kV=0.213 kW=0 PF=1
New Generator.GEN121 Bus1=1248.2 kV=0.213 kW=0 PF=1
New Generator.GEN21 Bus1=23.1 kV=0.213 kW=0 PF=1
New Generator.GEN22 Bus1=2143.2 kV=0.213 kW=0 PF=1
New Generator.GEN23 Bus1=2416.3 kV=0.213 kW=0 PF=1
New Generator.GEN24 Bus1=2419.3 kV=0.213 kW=0 PF=1
New Generator.GEN25 Bus1=2444.1 kV=0.213 kW=0 PF=1
New Generator.GEN31 Bus1=3335.1 kV=0.213 kW=0 PF=1
New Generator.GEN32 Bus1=3337.2 kV=0.213 kW=0 PF=1
New Generator.GEN33 Bus1=3343.3 kV=0.213 kW=0 PF=1
New Generator.GEN34 Bus1=3346.1 kV=0.213 kW=0 PF=1
New Generator.GEN35 Bus1=3348.2 kV=0.213 kW=0 PF=1
New Generator.GEN36 Bus1=3349.3 kV=0.213 kW=0 PF=1
New Generator.GEN37 Bus1=3357.1 kV=0.213 kW=0 PF=1
New Generator.GEN38 Bus1=3359.2 kV=0.213 kW=0 PF=1
New Generator.GEN39 Bus1=3363.3 kV=0.213 kW=0 PF=1
New Generator.GEN310 Bus1=3365.1 kV=0.213 kW=0 PF=1
New Generator.GEN311 Bus1=3368.2 kV=0.213 kW=0 PF=1
New Generator.GEN312 Bus1=3391.3 kV=0.213 kW=0 PF=1
New Generator.GEN313 Bus1=3393.1 kV=0.213 kW=0 PF=1
New Generator.GEN314 Bus1=3397.2 kV=0.213 kW=0 PF=1
New Generator.GEN315 Bus1=3401.3 kV=0.213 kW=0 PF=1
New Generator.GEN41 Bus1=4169.1 kV=0.213 kW=0 PF=1
New Generator.GEN42 Bus1=4185.2 kV=0.213 kW=0 PF=1
New Generator.GEN43 Bus1=4273.3 kV=0.213 kW=0 PF=1
New Generator.GEN44 Bus1=4289.1 kV=0.213 kW=0 PF=1
New Generator.GEN45 Bus1=4495.2 kV=0.213 kW=0 PF=1
New Generator.GEN46 Bus1=4496.3 kV=0.213 kW=0 PF=1
New Generator.GEN47 Bus1=4497.1 kV=0.213 kW=0 PF=1
New Generator.GEN51 Bus1=5271.1 kV=0.213 kW=0 PF=1
New Generator.GEN52 Bus1=5272.2 kV=0.213 kW=0 PF=1
New Generator.GEN53 Bus1=5273.3 kV=0.213 kW=0 PF=1
New Generator.GEN54 Bus1=5274.1 kV=0.213 kW=0 PF=1
New Generator.GEN55 Bus1=5275.2 kV=0.213 kW=0 PF=1
New Generator.GEN56 Bus1=5276.3 kV=0.213 kW=0 PF=1
New Generator.GEN57 Bus1=5298.1 kV=0.213 kW=0 PF=1
New Generator.GEN58 Bus1=5299.2 kV=0.213 kW=0 PF=1
New Generator.GEN59 Bus1=5300.3 kV=0.213 kW=0 PF=1
New Generator.GEN510 Bus1=5301.1 kV=0.213 kW=0 PF=1
New Generator.GEN511 Bus1=5312.2 kV=0.213 kW=0 PF=1
New Generator.GEN61 Bus1=664.1 kV=0.213 kW=0 PF=1
New Generator.GEN62 Bus1=6286.2 kV=0.213 kW=0 PF=1
New Generator.GEN63 Bus1=6367.3 kV=0.213 kW=0 PF=1
New Generator.GEN64 Bus1=6442.1 kV=0.213 kW=0 PF=1
New Generator.GEN65 Bus1=6459.2 kV=0.213 kW=0 PF=1
